WIDTH=8;
DEPTH=256;

ADDRESS_RADIX=HEX;
DATA_RADIX=HEX;

CONTENT BEGIN
	00 : 4C;
    01 : 83;
    02 : 7B;
    03 : 02;
    04 : 41;
    05 : 0F;
    06 : 0E;
    07 : C8;
    08 : 35;
    09 : A4;
    0A : EB;
    0B : 87;
    0C : 00;
    0D : 0F;
    0E : A7;
    0F : DB;
    10 : 4E;
    11 : 28;
    12 : 1A;
    13 : 0C;
    14 : 30;
    15 : CD;
    16 : 95;
    17 : 32;
    18 : DF;
    19 : 3B;
    1A : 96;
    1B : 58;
    1C : 7D;
    1D : 70;
    1E : 29;
    1F : 2A;
    20 : 0B;
    21 : 69;
    22 : BF;
    23 : E9;
    24 : 53;
    25 : 61;
    26 : F0;
    27 : 73;
    28 : 6C;
    29 : E1;
    2A : C2;
    2B : 94;
    2C : D2;
    2D : 31;
    2E : 8E;
    2F : 34;
    30 : 40;
    31 : 6F;
    32 : AF;
    33 : 52;
    34 : 53;
    35 : 2D;
    36 : 95;
    37 : 20;
    38 : 28;
    39 : 60;
    3A : D1;
    3B : DB;
    3C : A6;
    3D : 1C;
    3E : 87;
    3F : E1;
    40 : 83;
    41 : BD;
    42 : 81;
    43 : A6;
    44 : 25;
    45 : FB;
    46 : A2;
    47 : 93;
    48 : A8;
    49 : E6;
    4A : F4;
    4B : AD;
    4C : 20;
	[4D..FF] : 00;
END;